*EXP.DETAILS: CANM1501MZ CANM1501

*GENERAL
@PEOPLE
WangDan  MoYan
@ADDRESS
Chifeng,Inner Mongolia
@SITE
Wengniute 
@ PAREA  PRNO  PLEN  PLDR  PLSP  PLAY HAREA  HRNO  HLEN  HARM.........
    240    10    40   -99   200   -99    36     6    10   -99

*TREATMENTS                        -------------FACTOR LEVELS------------
@N R O C TNAME.................... CU FL SA IC MP MI MF MR MC MT ME MH SM
 1 1 1 0 Drip MD-N0                 1  1  0  1  1  1  1  0  0  1  0  1  1
 2 1 1 0 Drip MD-N140               1  1  0  1  2  1  2  0  0  1  0  1  1
 3 1 1 0 Drip MD-N190               1  1  0  1  3  1  3  0  0  1  0  1  1
 4 1 1 0 Drip MD-N240               1  1  0  1  4  1  4  0  0  1  0  1  1
 5 1 1 0 Drip MD-N290               1  1  0  1  5  1  5  0  0  1  0  1  1
 6 1 1 0 Drip MD-N340               1  1  0  1  6  1  6  0  0  1  0  1  1

*CULTIVARS
@C CR INGENO CNAME
 1 MZ IB1501 Xianyu 335

*FIELDS
@L ID_FIELD WSTA....  FLSA  FLOB  FLDT  FLDD  FLDS  FLST SLTX  SLDP  ID_SOIL    FLNAME
 1 CANM1501 CANM1501   -99   -99 DR000   -99   -99   -99 SIL    160  CANM1503   -99
@L ...........XCRD ...........YCRD .....ELEV .............AREA .SLEN .FLWR .SLAS FLHST FHDUR
 1              43             119       625               -99   -99   -99   -99   -99   -99

*INITIAL CONDITIONS
@C   PCR ICDAT  ICRT  ICND  ICRN  ICRE  ICWD ICRES ICREN ICREP ICRIP ICRID ICNAME
 1    MZ 15121   500   -99     1     1   -99   -99    .8   -99   -99   -99 -99
@C  ICBL  SH2O  SNH4  SNO3
 1    20  .198    .5   5.4
 1    40  .267    .5     5
 1    60  .297    .5   3.9
 1    80  .302    .5   3.4
 1   100  .302    .5   2.9
 1   120  .302    .5     2
 1   140  .302    .5   1.4
 1   160  .302    .5   1.4

*PLANTING DETAILS
@P PDATE EDATE  PPOP  PPOE  PLME  PLDS  PLRS  PLRD  PLDP  PLWT  PAGE  PENV  PLPH  SPRL                        PLNAME
 1 15123 15138  8.33  7.67     S     R    60     0     5   -99   -99   -99   -99   -99                        -99
 2 15123 15138  8.33  7.58     S     R    60     0     5   -99   -99   -99   -99   -99                        -99
 3 15123 15138  8.33  7.66     S     R    60     0     5   -99   -99   -99   -99   -99                        -99
 4 15123 15138  8.33  7.66     S     R    60     0     5   -99   -99   -99   -99   -99                        -99
 5 15123 15138  8.33  7.67     S     R    60     0     5   -99   -99   -99   -99   -99                        -99
 6 15123 15138  8.33  7.54     S     R    60     0     5   -99   -99   -99   -99   -99                        -99

*IRRIGATION AND WATER MANAGEMENT
@I  EFIR  IDEP  ITHR  IEPT  IOFF  IAME  IAMT IRNAME
 1     1    30    50   100 GS000 IR001    10 Drip irrigation
@I IDATE  IROP IRVAL
 1 15124 IR005    25
 1 15152 IR005    15
 1 15179 IR005    40
 1 15192 IR005    30
 1 15202 IR005    19
 1 15218 IR005    20
 1 15231 IR005    30
 1 15240 IR005    10
 1 15254 IR005    10

*FERTILIZERS (INORGANIC)
@F FDATE  FMCD  FACD  FDEP  FAMN  FAMP  FAMK  FAMC  FAMO  FOCD FERNAME
 1 15124 FE014 AP004     5     0   135     0     0     0   -99 Drip N0
 1 15124 FE018 AP004     5     0     0    68     0     0   -99 Drip N0
 1 15179 FE016 AP005     0     0     0    40     0     0   -99 Drip N0
 1 15192 FE016 AP005     0     0     0    27     0     0   -99 Drip N0
 2 15124 FE018 AP004     5     0     0    68     0     0   -99 Drip N140
 2 15124 FE005 AP004     5    28     0     0     0     0   -99 Drip N140
 2 15124 FE014 AP004     5     0    68     0     0     0   -99 Drip N140
 2 15179 FE005 AP005     0    26     0     0     0     0   -99 Drip N140
 2 15179 FE007 AP005     0     2    20     0     0     0   -99 Drip N140
 2 15179 FE016 AP005     0     0     0    40     0     0   -99 Drip N140
 2 15192 FE007 AP005     0     2    20     0     0     0   -99 Drip N140
 2 15192 FE005 AP005     0    33     0     0     0     0   -99 Drip N140
 2 15192 FE016 AP005     0     0     0    27     0     0   -99 Drip N140
 2 15218 FE005 AP005     0    18     0     0     0     0   -99 Drip N140
 2 15218 FE007 AP005     0     3    27     0     0     0   -99 Drip N140
 2 15231 FE005 AP005     0    21     0     0     0     0   -99 Drip N140
 2 15254 FE005 AP005     0     7     0     0     0     0   -99 Drip N140
 3 15124 FE005 AP004     5    38     0    68     0     0   -99 Drip N190
 3 15124 FE014 AP004     5     0     0     0     0     0   -99 Drip N190
 3 15124 FE018 AP004     5     0    68     0     0     0   -99 Drip N190
 3 15179 FE005 AP005     0    34     0     0     0     0   -99 Drip N190
 3 15179 FE007 AP005     0     2    20     0     0     0   -99 Drip N190
 3 15179 FE016 AP005     0     0     0    40     0     0   -99 Drip N190
 3 15192 FE007 AP005     0     2    20     0     0     0   -99 Drip N190
 3 15192 FE016 AP005     0     0     0    27     0     0   -99 Drip N190
 3 15192 FE005 AP005     0    46     0     0     0     0   -99 Drip N190
 3 15218 FE005 AP005     0    26     0     0     0     0   -99 Drip N190
 3 15218 FE007 AP005     0     3    27     0     0     0   -99 Drip N190
 3 15231 FE005 AP005     0    29     0     0     0     0   -99 Drip N190
 3 15254 FE005 AP005     0    10     0     0     0     0   -99 Drip N190
 4 15124 FE018 AP004     5     0     0    68     0     0   -99 Drip N240
 4 15124 FE014 AP004     5     0    68     0     0     0   -99 Drip N240
 4 15124 FE005 AP004     5    48     0     0     0     0   -99 Drip N240
 4 15179 FE016 AP005     0     0     0    40     0     0   -99 Drip N240
 4 15179 FE005 AP005     0    46     0     0     0     0   -99 Drip N240
 4 15179 FE007 AP005     0     2    20     0     0     0   -99 Drip N240
 4 15192 FE007 AP005     0     2    20     0     0     0   -99 Drip N240
 4 15192 FE016 AP005     0     0     0    27     0     0   -99 Drip N240
 4 15192 FE005 AP005     0    58     0     0     0     0   -99 Drip N240
 4 15218 FE007 AP005     0     3    27     0     0     0   -99 Drip N240
 4 15218 FE005 AP005     0    33     0     0     0     0   -99 Drip N240
 4 15231 FE005 AP005     0    36     0     0     0     0   -99 Drip N240
 4 15254 FE005 AP005     0    12     0     0     0     0   -99 Drip N240
 5 15124 FE014 AP004     5     0    68     0     0     0   -99 Drip N290
 5 15124 FE018 AP004     5     0     0    68     0     0   -99 Drip N290
 5 15124 FE005 AP004     5    58     0     0     0     0   -99 Drip N290
 5 15179 FE005 AP005     0    54     0     0     0     0   -99 Drip N290
 5 15179 FE007 AP005     0     2    20     0     0     0   -99 Drip N290
 5 15179 FE016 AP005     0     0     0    40     0     0   -99 Drip N290
 5 15192 FE016 AP005     0     0     0    27     0     0   -99 Drip N290
 5 15192 FE005 AP005     0    71     0     0     0     0   -99 Drip N290
 5 15192 FE007 AP005     0     2    20     0     0     0   -99 Drip N290
 5 15218 FE007 AP005     0     3    27     0     0     0   -99 Drip N290
 5 15218 FE005 AP005     0    41     0     0     0     0   -99 Drip N290
 5 15231 FE005 AP005     0    44     0     0     0     0   -99 Drip N290
 5 15254 FE005 AP005     0    15     0     0     0     0   -99 Drip N290
 6 15124 FE005 AP004     5    68     0     0     0     0   -99 Drip N340
 6 15124 FE014 AP004     5     0    68     0     0     0   -99 Drip N340
 6 15124 FE018 AP004     5     0     0    68     0     0   -99 Drip N340
 6 15179 FE005 AP005     0    66     0     0     0     0   -99 Drip N340
 6 15179 FE007 AP005     0     2    20     0     0     0   -99 Drip N340
 6 15179 FE016 AP005     0     0     0    40     0     0   -99 Drip N340
 6 15192 FE005 AP005     0    83     0     0     0     0   -99 Drip N340
 6 15192 FE007 AP005     0     2    20     0     0     0   -99 Drip N340
 6 15192 FE016 AP005     0     0     0    27     0     0   -99 Drip N340
 6 15218 FE005 AP005     0    48     0     0     0     0   -99 Drip N340
 6 15218 FE007 AP005     0     3    27     0     0     0   -99 Drip N340
 6 15231 FE005 AP005     0    51     0     0     0     0   -99 Drip N340
 6 15254 FE005 AP005     0    17     0     0     0     0   -99 Drip N340

*RESIDUES AND ORGANIC FERTILIZER
@R RDATE  RCOD  RAMT  RESN  RESP  RESK  RINP  RDEP  RMET RENAME
 1 15123   -99   -99   -99   -99   -99   -99   -99   -99 -99

*CHEMICAL APPLICATIONS
@C CDATE CHCOD CHAMT  CHME CHDEP   CHT..CHNAME
 1 15123   -99   -99   -99   -99   -99  -99

*TILLAGE AND ROTATIONS
@T TDATE TIMPL  TDEP TNAME
 1 15123 TI003    20 -99

*ENVIRONMENT MODIFICATIONS
@E ODATE EDAY  ERAD  EMAX  EMIN  ERAIN ECO2  EDEW  EWIND ENVNAME  
 1 15123 A   0 A   0 A   0 A   0 A 0.0 A   0 A   0 A   0 

*HARVEST DETAILS
@H HDATE  HSTG  HCOM HSIZE   HPC  HBPC HNAME
 1 15275 GS000   -99   -99   -99   -99 Maize

*SIMULATION CONTROLS
@N GENERAL     NYERS NREPS START SDATE RSEED SNAME.................... SMODEL
 1 GE              1     1     S 15121  2150 Drip irrigation           MZCER
@N OPTIONS     WATER NITRO SYMBI PHOSP POTAS DISES  CHEM  TILL   CO2
 1 OP              Y     Y     N     N     N     N     N     Y     M
@N METHODS     WTHER INCON LIGHT EVAPO INFIL PHOTO HYDRO NSWIT MESOM MESEV MESOL
 1 ME              M     M     E     R     S     C     R     1     G     S     3
@N MANAGEMENT  PLANT IRRIG FERTI RESID HARVS
 1 MA              R     R     R     R     R
@N OUTPUTS     FNAME OVVEW SUMRY FROPT GROUT CAOUT WAOUT NIOUT MIOUT DIOUT VBOSE CHOUT OPOUT FMOPT
 1 OU              N     Y     Y     1     Y     N     Y     Y     N     N     Y     N     N     A

@  AUTOMATIC MANAGEMENT
@N PLANTING    PFRST PLAST PH2OL PH2OU PH2OD PSTMX PSTMN
 1 PL          03001 03001    40   100    30    40    10
@N IRRIGATION  IMDEP ITHRL ITHRU IROFF IMETH IRAMT IREFF
 1 IR             30    50   100 GS000 IR001    10     1
@N NITROGEN    NMDEP NMTHR NAMNT NCODE NAOFF
 1 NI             30    50    25 FE001 GS000
@N RESIDUES    RIPCN RTIME RIDEP
 1 RE            100     1    20
@N HARVEST     HFRST HLAST HPCNP HPCNR
 1 HA              0 01001   100     0



